iidm/iidm-serde/src/test/resources/V1_18/generatorEntsoeCategoryRef.xml
<?xml version="1.0" encoding="UTF-8"?>
<iidm:network xmlns:iidm="http://www.powsybl.org/schema/iidm/1_18" xmlns:gec="http://www.powsybl.org/schema/iidm/ext/generator_entsoe_category/1_1" id="test" caseDate="2016-06-27T12:27:58.535+02:00" forecastDistance="0" sourceFormat="test" minimumValidationLevel="STEADY_STATE_HYPOTHESIS">
    <iidm:substation id="S" country="FR">
        <iidm:voltageLevel id="VL" nominalV="400.0" topologyKind="BUS_BREAKER">
            <iidm:busBreakerTopology>
                <iidm:bus id="B"/>
            </iidm:busBreakerTopology>
            <iidm:generator id="G0" energySource="OTHER" minP="0.0" maxP="100.0" targetP="100.0" localTargetV="380.0" bus="B" connectableBus="B">
                <iidm:minMaxReactiveLimits minQ="-1.7976931348623157E308" maxQ="1.7976931348623157E308"/>
                <iidm:voltageRegulation mode="VOLTAGE" regulating="true"/>
            </iidm:generator>
            <iidm:generator id="G4" energySource="OTHER" minP="0.0" maxP="100.0" targetP="100.0" localTargetV="380.0" bus="B" connectableBus="B">
                <iidm:minMaxReactiveLimits minQ="-1.7976931348623157E308" maxQ="1.7976931348623157E308"/>
                <iidm:voltageRegulation mode="VOLTAGE" regulating="true"/>
            </iidm:generator>
        </iidm:voltageLevel>
    </iidm:substation>
    <iidm:extension id="G0">
        <gec:entsoeCategory>0</gec:entsoeCategory>
    </iidm:extension>
    <iidm:extension id="G4">
        <gec:entsoeCategory>4</gec:entsoeCategory>
    </iidm:extension>
</iidm:network>